Circuit: * C:\Users\jeet\Documents\LTspiceXVII\am_demodulation.asc

.OP point found by inspection.

Date: Sun Feb 04 11:49:26 2018
Total elapsed time: 1.498 seconds.

tnom = 27
temp = 27
method = modified trap
totiter = 1262462
traniter = 1262462
tranpoints = 371815
accept = 241182
rejected = 130633
matrix size = 6
fillins = 0
solver = Normal
Matrix Compiler1: 164 bytes object code size  0.1/0.1/[0.0]
Matrix Compiler2: 354 bytes object code size  0.0/0.1/[0.0]

