Circuit: * C:\Users\jeet\Documents\LTspiceXVII\bandpass_buffer.asc

Direct Newton iteration for .op point succeeded.

Date: Tue Jan 22 18:42:30 2019
Total elapsed time: 0.059 seconds.

tnom = 27
temp = 27
method = trap
totiter = 3
traniter = 0
tranpoints = 0
accept = 0
rejected = 0
matrix size = 10
fillins = 0
solver = Normal
Matrix Compiler1:      22 opcodes
Matrix Compiler2: 768 bytes object code size
