Circuit: * C:\Users\jeet\Documents\LTspiceXVII\bandpass_active.asc

Direct Newton iteration for .op point succeeded.

Date: Sat Mar 03 10:33:45 2018
Total elapsed time: 0.037 seconds.

tnom = 27
temp = 27
method = trap
totiter = 3
traniter = 0
tranpoints = 0
accept = 0
rejected = 0
matrix size = 10
fillins = 0
solver = Normal
Matrix Compiler1:      20 opcodes
Matrix Compiler2: 780 bytes object code size
