Circuit: * C:\Users\jeet\Documents\LTspiceXVII\bjf_f_response.asc

Direct Newton iteration for .op point succeeded.

Date: Thu Feb 08 20:20:25 2018
Total elapsed time: 0.016 seconds.

tnom = 27
temp = 27
method = trap
totiter = 5
traniter = 0
tranpoints = 0
accept = 0
rejected = 0
matrix size = 11
fillins = 0
solver = Normal
Matrix Compiler1:      33 opcodes
Matrix Compiler2: 847 bytes object code size
