Circuit: * C:\Users\jeet\Documents\LTspiceXVII\bjt_char.asc

Vcc: Missing value, assumed 0V @ DC
.step ib=1e-006
.step ib=1.1e-005
.step ib=2.1e-005
.step ib=3.1e-005
.step ib=4.1e-005
.step ib=5.1e-005
.step ib=6.1e-005
.step ib=7.1e-005
.step ib=8.1e-005
.step ib=9.1e-005
.step ib=0.0001

Date: Tue Jan 22 18:47:31 2019
Total elapsed time: 0.317 seconds.

tnom = 27
temp = 27
method = trap
totiter = 22122
traniter = 0
tranpoints = 0
accept = 0
rejected = 0
matrix size = 7
fillins = 0
solver = Normal
Matrix Compiler1: 410 bytes object code size  0.1/0.1/[0.0]
Matrix Compiler2: 535 bytes object code size  0.1/0.1/[0.0]

