Circuit: * C:\Users\jeet\Documents\LTspiceXVII\diode_forward_drop.asc

V1: Missing value, assumed 0V @ DC
.OP point found by inspection.

Date: Tue Jan 22 19:50:52 2019
Total elapsed time: 0.032 seconds.

tnom = 27
temp = 27
method = trap
totiter = 208
traniter = 0
tranpoints = 0
accept = 0
rejected = 0
matrix size = 3
fillins = 0
solver = Normal
Matrix Compiler1: 50 bytes object code size  0.0/0.0/[0.0]
Matrix Compiler2: off  [0.0]/0.0/0.4

