Circuit: * C:\Users\jeet\Documents\LTspiceXVII\highpassfilter_pos_edge.asc

.OP point found by inspection.

Date: Thu Feb 08 20:20:55 2018
Total elapsed time: 0.063 seconds.

tnom = 27
temp = 27
method = modified trap
totiter = 7160
traniter = 7160
tranpoints = 3453
accept = 3063
rejected = 390
matrix size = 4
fillins = 0
solver = Normal
Matrix Compiler1: 136 bytes object code size  0.1/0.0/[0.0]
Matrix Compiler2: off  [0.0]/0.0/0.0

