Circuit: * C:\Users\jeet\Documents\LTspiceXVII\lcr.asc

V1: Removing PWL point (0.002,10)
Direct Newton iteration for .op point succeeded.

Date: Sat Apr 13 14:20:17 2019
Total elapsed time: 0.035 seconds.

tnom = 27
temp = 27
method = modified trap
totiter = 2127
traniter = 2124
tranpoints = 1063
accept = 1060
rejected = 3
matrix size = 4
fillins = 0
solver = Normal
Matrix Compiler1:       6 opcodes  0.0/[0.0]/0.0
Matrix Compiler2: 248 bytes object code size  0.0/0.1/[0.0]

