Circuit: * C:\Users\jeet\Documents\LTspiceXVII\led_driver.asc

Direct Newton iteration for .op point succeeded.

Date: Wed Jan 03 18:17:42 2018
Total elapsed time: 34.696 seconds.

tnom = 27
temp = 27
method = modified trap
totiter = 21153819
traniter = 21153814
tranpoints = 5505911
accept = 3956545
rejected = 1549366
matrix size = 10
fillins = 0
solver = Normal
Matrix Compiler1: 346 bytes object code size  0.2/0.1/[0.0]
Matrix Compiler2: off  [0.0]/0.1/0.0

