Circuit: * C:\Users\jeet\Documents\LTspiceXVII\LP_sqtodc.asc

.OP point found by inspection.

Date: Tue Jan 22 18:42:01 2019
Total elapsed time: 0.275 seconds.

tnom = 27
temp = 27
method = modified trap
totiter = 89490
traniter = 89490
tranpoints = 44746
accept = 40147
rejected = 4599
matrix size = 4
fillins = 0
solver = Normal
Matrix Compiler1: 100 bytes object code size  0.1/0.1/[0.0]
Matrix Compiler2: 248 bytes object code size  0.0/0.0/[0.0]

