Circuit: * C:\Users\jeet\Documents\LTspiceXVII\opamp.asc

Direct Newton iteration for .op point succeeded.

Date: Thu Feb 08 20:09:09 2018
Total elapsed time: 0.156 seconds.

tnom = 27
temp = 27
method = modified trap
totiter = 2101
traniter = 2098
tranpoints = 1050
accept = 1050
rejected = 0
matrix size = 8
fillins = 0
solver = Normal
Matrix Compiler1: 300 bytes object code size  0.1/0.1/[0.0]
Matrix Compiler2: 616 bytes object code size  0.1/0.1/[0.1]

