Circuit: * C:\Users\jeet\Documents\LTspiceXVII\servo_con.asc

Direct Newton iteration for .op point succeeded.

Date: Sat Oct 13 19:00:57 2018
Total elapsed time: 0.078 seconds.

tnom = 27
temp = 27
method = modified trap
totiter = 4983
traniter = 4969
tranpoints = 1736
accept = 1553
rejected = 183
matrix size = 20
fillins = 2
solver = Normal
Matrix Compiler1: 986 bytes object code size  0.4/0.2/[0.1]
Matrix Compiler2: off  [0.2]/0.2/0.2

