Circuit: * C:\Users\jeet\Documents\LTspiceXVII\sinewave_using_lowpassfilter.asc

.OP point found by inspection.

Date: Tue Jan 22 18:41:04 2019
Total elapsed time: 0.144 seconds.

tnom = 27
temp = 27
method = modified trap
totiter = 60177
traniter = 60177
tranpoints = 29964
accept = 25775
rejected = 4189
matrix size = 5
fillins = 0
solver = Normal
Matrix Compiler1:       9 opcodes  0.1/[0.0]/0.0
Matrix Compiler2: 321 bytes object code size  0.1/0.1/[0.0]

