Circuit: * C:\Users\jeet\Documents\LTspiceXVII\voltage mult.asc

Direct Newton iteration for .op point succeeded.

Date: Sun Apr 14 13:44:50 2019
Total elapsed time: 0.562 seconds.

tnom = 27
temp = 27
method = modified trap
totiter = 252844
traniter = 252833
tranpoints = 122142
accept = 99270
rejected = 22872
matrix size = 12
fillins = 4
solver = Normal
Matrix Compiler1: 722 bytes object code size  0.3/0.2/[0.0]
Matrix Compiler2: off  [0.1]/0.2/0.1

