Circuit: * C:\Users\jeet\Documents\LTspiceXVII\zener_with_current_limit.asc


Date: Sat Oct 13 20:34:55 2018
Total elapsed time: 0.053 seconds.

tnom = 27
temp = 27
method = trap
totiter = 661
traniter = 0
tranpoints = 0
accept = 0
rejected = 0
matrix size = 9
fillins = 0
solver = Normal
Matrix Compiler1: 528 bytes object code size  0.2/0.1/[0.0]
Matrix Compiler2: 715 bytes object code size  0.1/0.1/[0.1]

